Version 4
SHEET 1 1320 964
WIRE 192 -288 32 -288
WIRE 320 -288 192 -288
WIRE 960 -288 320 -288
WIRE 32 -224 32 -288
WIRE 192 -144 192 -288
WIRE 320 -112 320 -288
WIRE 32 -80 32 -144
WIRE 960 32 960 -288
WIRE -256 48 -384 48
WIRE -128 48 -176 48
WIRE 192 48 192 -64
WIRE 192 48 64 48
WIRE 320 48 320 -32
WIRE 896 48 320 48
WIRE 1088 64 1008 64
WIRE 1168 64 1088 64
WIRE 192 96 192 48
WIRE 368 96 192 96
WIRE 528 96 448 96
WIRE 720 96 528 96
WIRE 752 96 720 96
WIRE 864 96 832 96
WIRE 896 96 864 96
WIRE -384 128 -384 48
WIRE -128 144 -208 144
WIRE 192 144 64 144
WIRE 320 160 320 48
WIRE 528 176 528 96
WIRE 864 176 864 96
WIRE 720 192 720 96
WIRE 960 192 960 112
WIRE -384 272 -384 208
WIRE -208 272 -208 144
WIRE -208 272 -384 272
WIRE 192 304 192 144
WIRE 320 304 320 240
WIRE 320 304 192 304
WIRE 528 304 528 240
WIRE 528 304 320 304
WIRE -384 336 -384 272
WIRE 320 336 320 304
WIRE 720 336 720 272
WIRE 864 336 864 240
WIRE 864 336 720 336
WIRE 1088 336 1088 64
WIRE 1088 336 864 336
FLAG -384 336 0
FLAG 320 336 0
FLAG 32 -80 0
FLAG 960 192 0
FLAG 1168 64 Analog_out
SYMBOL voltage -384 112 R0
WINDOW 123 0 0 Left 0
WINDOW 39 0 0 Left 0
WINDOW 3 -407 111 Left 2
SYMATTR InstName V1
SYMATTR Value PULSE(0 12 0 2us 2us 900us 1ms)
SYMBOL Optos\\PC817A -32 96 R0
SYMATTR InstName U1
SYMBOL res -160 32 R90
WINDOW 0 0 56 VBottom 2
WINDOW 3 32 56 VTop 2
SYMATTR InstName R1
SYMATTR Value 550
SYMBOL voltage 32 -240 R0
WINDOW 123 0 0 Left 0
WINDOW 39 0 0 Left 0
SYMATTR InstName V2
SYMATTR Value 5
SYMBOL res 176 -160 R0
SYMATTR InstName R4
SYMATTR Value 1k
SYMBOL AutoGenerated\\lMV321 960 64 R0
WINDOW 0 23 -49 Bottom 2
WINDOW 3 -53 -75 Top 2
SYMATTR InstName U2
SYMBOL res 304 -128 R0
SYMATTR InstName R2
SYMATTR Value 100k
SYMBOL res 304 144 R0
SYMATTR InstName R3
SYMATTR Value 100k
SYMBOL res 736 288 R180
WINDOW 0 36 76 Left 2
WINDOW 3 36 40 Left 2
SYMATTR InstName R5
SYMATTR Value 150k
SYMBOL cap 880 240 R180
WINDOW 0 24 56 Left 2
WINDOW 3 24 8 Left 2
SYMATTR InstName C1
SYMATTR Value 68nF
SYMBOL res 464 80 R90
WINDOW 0 0 56 VBottom 2
WINDOW 3 32 56 VTop 2
SYMATTR InstName R6
SYMATTR Value 150k
SYMBOL res 848 80 R90
WINDOW 0 0 56 VBottom 2
WINDOW 3 32 56 VTop 2
SYMATTR InstName R7
SYMATTR Value 82k
SYMBOL cap 512 176 R0
SYMATTR InstName C2
SYMATTR Value 100nF
TEXT -416 360 Left 2 !.tran 200ms
